   400

Si    9.306   17.635    0.792
Si    6.399   16.765   14.708
Si   10.463    6.103    2.822
Si    6.377    3.380    7.089
Si   18.750   17.803   15.731
Si   13.159    4.607   18.956
Si   15.809   11.322    0.060
Si    5.465   18.215   18.138
Si   13.003    1.763   16.194
Si   13.204   10.923   14.111
Si   14.789    3.723    3.505
Si   16.921   11.125   12.525
Si    5.525    2.003   11.043
Si   19.829   11.113    1.548
Si    1.683    9.077   13.481
Si    5.046    1.583   19.253
Si    6.766   13.012    0.183
Si    2.637   14.777    3.001
Si   10.942    6.557    8.333
Si   16.773   12.881    5.665
Si   18.801    9.367    5.319
Si   19.957   17.840    9.935
Si    3.956   10.617    2.732
Si    3.205    2.405   10.437
Si   17.566    3.925   14.190
Si    5.032   13.124    3.785
Si   11.663   13.845   19.433
Si    0.220   10.988    8.841
Si    2.923    6.295   13.152
Si    6.279   14.496    5.738
Si   11.860   10.267    2.951
Si   16.694    1.136   11.316
Si   11.363    0.809    2.711
Si    0.385    6.516   18.423
Si    2.450    0.092    0.782
Si   11.333    4.345    0.055
Si   11.107    0.003    5.941
Si   12.798    9.566    9.642
Si    2.130    9.471    3.566
Si    8.965    4.114   12.433
Si   14.442   17.044   18.456
Si   16.219    5.097   13.235
Si   13.337    2.963   12.256
Si    3.231   17.684   11.123
Si   18.220    7.850    7.065
Si   12.926   15.180   15.367
Si   13.927    2.313    7.086
Si    0.893    8.402   19.521
Si   11.739   14.738    3.738
Si    2.281   17.637   19.139
Si   15.682    7.883   11.235
Si   18.558    1.509   19.230
Si   17.177   16.315   19.463
Si   15.848   16.145    5.052
Si   10.919   12.476    7.654
Si    8.609    8.427    4.208
Si    3.258   12.653    5.768
Si    2.614    5.634    8.844
Si   16.118   19.663    9.145
Si    3.627   19.308    8.206
Si   18.282   11.688   18.508
Si    1.546   11.229   19.621
Si    8.559    1.148    6.641
Si   15.776   10.849    4.246
Si    7.161    5.512   15.924
Si   19.714   15.444   16.575
Si   16.296   19.790    3.206
Si    6.470   10.384    0.810
Si   17.720   14.010    7.658
Si    5.246   15.499    7.975
Si    4.604    9.917   19.496
Si    5.233   11.682   14.549
Si   11.856    7.683   16.529
Si   11.444   11.896   12.180
Si    2.159   15.741   13.295
Si   18.859   13.419    1.026
Si    2.000   12.507   14.167
Si    6.491   10.556    9.713
Si   11.540    7.706    3.775
Si   12.665    4.353    4.631
Si    2.359    6.362    0.031
Si    1.220    4.058    8.090
Si    1.466    0.360   18.785
Si    6.595   15.514   13.120
Si   15.344   16.040   10.288
Si    0.197   18.936   19.533
Si   13.852   10.664   16.014
Si   11.978    4.427   10.019
Si   17.323   14.810    5.767
Si    9.089   18.178    5.991
Si    9.602   17.144   15.436
Si   16.562    8.688    5.793
Si   19.757   14.576    5.634
Si    3.800    7.996   12.372
Si    8.628    5.025   19.434
Si   17.286    3.760    1.915
Si   11.492    6.140   11.837
Si    8.597   10.814   15.555
Si    6.552    4.189    2.431
Si   15.945   14.881    8.269
Si    4.697    8.263    6.199
Si    0.425    1.005   12.699
Si   15.173    6.903    0.396
Si    7.482    6.173   13.062
Si    2.924    8.851    1.342
Si   12.007    4.224   16.329
Si   17.160   14.608   10.669
Si   15.082   12.449   13.851
Si   14.428    0.099   12.653
Si    8.648    7.955    0.222
Si    1.233    6.942   16.622
Si   15.390    4.656   15.259
Si    1.003    2.160   16.255
Si    4.853   19.463    1.509
Si    1.851   13.203   19.504
Si    5.246   19.573   11.058
Si    7.015   17.639   16.581
Si    9.441   17.649   18.074
Si    6.523    8.338    7.342
Si    6.789    0.227    2.522
Si   16.277   14.093   14.663
Si    6.303    0.271    9.451
Si   10.534   10.380   10.497
Si   13.505   14.485   10.952
Si   19.561    7.221    1.201
Si    4.299    1.866   13.025
Si   16.914   18.561   19.077
Si    4.527   15.649    5.406
Si    8.434    1.472   16.044
Si    2.314    5.656    5.185
Si    3.378   14.040   16.522
Si    7.855    2.586    4.716
Si   15.571   18.308   14.148
Si   17.088    1.712    3.161
Si   16.334   13.632   19.369
Si    9.561   19.479    4.260
Si    5.222   10.616    4.694
Si    2.699    7.690   10.298
Si   15.811   18.377   16.896
Si   11.732    7.071    6.404
Si   17.231   10.608    1.499
Si   16.317    4.724    6.384
Si   16.720    4.793    4.204
Si   11.282   11.075   17.056
Si    9.288    9.085   16.314
Si   10.261    2.892    6.261
Si    2.643   14.012   11.249
Si   16.723    7.216   15.185
Si    2.750    7.417    6.619
Si    9.012    5.924   10.563
Si    8.214    4.291    8.286
Si    5.017    8.852    2.721
Si   15.188    3.666   19.718
Si    1.634    4.721   17.454
Si   18.023   17.101    6.233
Si   10.303   16.683    2.954
Si   14.476   10.787    2.422
Si    3.790   19.934    5.894
Si   16.194   14.673   17.200
Si    3.669   17.331   14.331
Si    7.030    3.020   12.015
Si   19.180   10.133   16.678
Si    1.010    2.622   11.320
Si    9.016   13.196   11.806
Si    9.990   15.245    6.120
Si   18.129    5.854   17.852
Si   10.012   12.026    4.260
Si    8.824    0.041   11.224
Si   17.309    3.084   16.427
Si    7.011   11.212   18.326
Si   13.219    8.656   13.390
Si    7.867    2.077   19.019
Si    0.304   10.623    5.985
Si    9.084   11.182    6.046
Si   15.534    8.005    2.085
Si    6.947   17.824   19.837
Si   10.506    7.882   11.358
Si   15.087    9.263   17.516
Si    8.615   13.608    8.420
Si   16.786    9.299    7.756
Si    4.909    2.786    1.911
Si   18.510   15.845   11.735
Si   13.684    7.826   18.401
Si   15.545    1.642    0.845
Si    7.504   15.139    2.986
Si   10.900   19.246   19.647
Si   11.833   12.806   14.833
Si   18.228   11.412    6.399
Si   13.662    6.045   15.077
Si   18.263   18.945    0.582
Si    3.518    9.261   17.187
Si   19.803   12.073   13.437
Si    3.253    5.166   14.821
Si   19.092    4.258   19.147
Si    2.394    3.211   19.623
Si    6.716    9.925   16.071
Si    8.443    9.641    7.599
Si   11.035    0.982    9.380
Si   13.880    0.242   17.478
Si   16.431    1.653    9.371
Si   13.808    4.262    7.996
Si    9.373    2.312   14.479
Si    1.047   17.044    5.037
Si   18.745   19.739    3.505
Si    4.679   13.869    0.974
Si    6.542    6.684    2.423
Si    8.246   17.300   10.112
Si    6.683   11.591   13.093
Si    5.779    7.575   12.002
Si   11.204    1.193   11.857
Si   18.073   14.901    2.302
Si    1.291    2.626    1.189
Si   19.080    2.474    6.867
Si    7.222    4.575   10.538
Si    6.391   12.866    7.506
Si   18.851   19.861    7.955
Si    9.757   14.818   18.709
Si   17.292    7.045    8.773
Si   17.098   18.011   12.422
Si    7.261    8.538   10.028
Si    8.683   19.473   16.551
Si    6.556    1.982    0.872
Si    2.414    9.571    9.136
Si   13.071    7.878   11.462
Si   19.493   19.526   10.908
Si    4.867   15.575   16.144
Si    8.506   13.282   17.897
Si    0.843   12.736    3.101
Si    5.379    0.900   14.707
Si   18.997   14.630   19.136
Si   13.809   17.940    2.951
Si    6.815   16.441    4.987
Si    5.802   12.627   17.205
Si   15.129    1.970    4.491
Si    8.447   10.959   19.794
Si   17.334    8.421    2.934
Si   14.282   16.055    7.998
Si   17.755   11.419    9.044
Si    0.046    6.339    5.726
Si    0.506   15.611   11.568
Si    0.430    1.708    3.110
Si    3.395    0.309   15.329
Si    5.411    5.644   14.946
Si   13.659    6.142   10.110
Si   14.287   10.990    7.946
Si    6.111    6.843    8.841
Si    2.924    7.295   17.893
Si    9.264    4.971   14.243
Si   13.626    5.576   17.185
Si   19.754    9.280    3.307
Si   10.924    1.510   16.571
Si   19.674    7.156    9.593
Si    1.547   12.343    7.390
Si    7.288   13.697   10.144
Si   13.842    4.569   13.417
Si    2.057    4.404   12.970
Si   14.769    3.838   17.480
Si    6.270    6.285   18.233
Si   12.584   17.352    6.479
Si    7.288   15.798   18.604
Si   18.755    6.301   12.372
Si    3.534   17.927    0.716
Si    7.128   14.243   15.601
Si    1.355   11.823   17.383
Si   10.465   16.630   10.944
Si   11.853    1.786    0.826
Si   19.164    5.842    7.719
Si    1.768    4.164    3.324
Si    1.333    0.203   14.798
Si    1.656    1.770    6.913
Si    9.632    3.391   17.733
Si   13.376    2.184    2.502
Si    5.157   11.122   11.621
Si   10.255    8.810    2.269
Si    4.826    4.913    9.351
Si    6.933    0.380   19.624
Si   18.520   12.427   10.724
Si   12.333   17.056    0.271
Si    3.962    4.372    3.884
Si   12.771    7.322    0.384
Si    8.239    5.445    1.872
Si   10.036    6.701    5.098
Si    0.053   15.630    8.804
Si    7.359    8.682    2.636
Si   16.866    9.852   18.942
Si    2.392   16.580    1.889
Si    8.954   13.242   15.899
Si   16.735    9.042   13.519
Si   11.626    8.942   14.729
Si   14.355   17.723    9.491
Si    9.808   19.614    1.635
Si   19.625    8.907   10.726
Si    2.757    7.053    3.561
Si    1.592   17.575   15.891
Si    0.561   18.544    2.112
Si    3.738   13.614   14.439
Si   15.009    0.540   15.720
Si   15.228   19.205    0.341
Si    0.407    5.144   15.272
Si    9.671    6.838   18.144
Si    2.848   10.218    6.390
Si    4.657    3.954   13.335
Si    3.993    1.924    3.721
Si    2.277   11.145   11.244
Si   18.503    0.847   13.640
Si    0.178   16.527   18.971
Si    6.747   12.281    2.081
Si    5.604   16.003   11.189
Si   12.074   18.502    8.331
Si    9.913    9.528   13.110
Si    8.528    5.264    5.492
Si   15.561   15.170    0.518
Si    8.060    8.653   12.206
Si   11.825   15.152   12.515
Si   19.038    7.518   14.473
Si   17.355   16.875    3.490
Si   14.283    8.320    6.418
Si    2.944   13.356    8.440
Si   13.328    0.691    5.648
Si    6.868   11.092    5.836
Si    4.349   18.685    4.365
Si   10.969    1.002   13.986
Si    8.854    3.319    3.002
Si   13.150   13.222   16.820
Si   11.666   18.827   15.570
Si   10.016   14.826    1.154
Si    0.519    0.813    8.994
Si   13.660    0.835    9.030
Si   11.483   13.316   10.370
Si    0.725    5.714   11.175
Si   15.545    5.422    2.019
Si   16.082   17.415    1.012
Si   15.651   13.265    1.743
Si   13.148   11.327    4.449
Si    4.909   15.903   19.221
Si   11.573   18.668   17.670
Si    0.332   15.506    3.171
Si    1.982   14.442    5.026
Si    4.876    9.159   15.433
Si   16.237    6.612   17.550
Si   12.554   14.541    7.032
Si    4.702    9.368    9.140
Si    4.490    3.747   17.213
Si    2.391   15.402   19.393
Si    4.831   17.388    6.568
Si   14.273   13.545    7.960
Si    2.666    3.754    6.457
Si   19.068    3.180    3.425
Si    8.041    1.885    9.358
Si    6.096   15.787    1.210
Si   17.150    5.657   10.867
Si   17.732   12.996   16.003
Si    9.989    3.698    9.000
Si    8.663    1.112    3.092
Si    0.699    5.023    1.077
Si   19.417    2.966   13.353
Si    4.782    8.039   18.317
Si    6.385    8.154    0.251
Si   17.666    3.673   11.764
Si   14.423   11.542   11.004
Si   19.773   12.679   16.094
Si   15.666    1.801   17.524
Si    5.137    5.051    5.445
Si   12.073    6.554   18.449
Si   14.065   18.601    7.145
Si   18.837    8.469   19.414
Si   17.424    2.306    5.470
Si   16.403    4.619    8.703
Si    3.272    0.072   11.644
Si    8.074   18.917    8.324
Si   13.364   18.469   13.386
Si   11.772   16.306    9.449
Si    1.106   18.497    8.136
Si   10.086   14.797   16.520
Si   10.101   13.478    2.813
Si    4.448    4.224    7.496
Si    7.365   19.731    5.705
Si   14.115   10.018   19.263
Si   19.952   13.914    7.595
Si    6.867    3.857   17.095
Si    7.918   16.125    7.942
Si   14.067   18.648    5.018
Si    2.496    3.364   15.503
Si    4.871    2.293    8.160
Si    7.217   18.841   14.679
Si   17.188   19.195    6.198
Si   18.477    3.561    9.719
Si    1.207    0.825    5.068
Si   14.346    4.027    5.693
Si    5.743    3.055    4.234
Si   13.707    6.909    4.098
Si    1.561   18.916   11.113
Si    6.316    0.048   17.230
Si    1.023   18.255   13.950
Si   10.515   10.191    0.121
Si   17.851    6.321    2.680
Si   13.790   17.299   14.984
Si    5.691   16.287    3.238
Si    8.167    8.314   14.831
Si   14.026    6.073    6.521
